%chk=Mol1.chk
%nproc=16
%mem=20GB
# m062x/cbsb7 opt(maxcycle=200) freq scf(maxcycle=200) geom=connectivity nosymm

Title Card Required

0 1
 C                 -0.66663451   -2.76898696    0.00103899
 C                  0.73476543   -2.76890496    0.00062983
 C                  1.43539448   -1.55521600    0.00074455
 C                  0.73462358   -0.34160904    0.00127016
 C                 -0.66677636   -0.34169105    0.00167878
 C                 -1.36740540   -1.55538001    0.00156294
 H                 -1.20158033   -3.69566542    0.00094788
 H                  1.26981956   -3.69552080    0.00022615
 H                  2.50539443   -1.55515338    0.00043133
 H                 -1.20183049    0.58492479    0.00207885
 H                 -2.43740535   -1.55544262    0.00187205
 O                  1.42955118    0.89684908    0.00138953
 C                  1.60746724    1.31002535   -1.34678750
 C                  2.85513152    0.90571926   -2.00786137
 C                  0.75296069    2.11924420   -2.00692713
 C                  3.08828989    1.31063310   -3.32907441
 H                  3.56864754    0.28786189   -1.50383044
 C                  0.98611896    2.52415788   -3.32814024
 H                 -0.13857598    2.42794248   -1.50218191
 C                  2.15378367    2.11985251   -3.98921381
 H                  3.97982879    1.00193868   -3.83381806
 H                  0.27260405    3.14201716   -3.83217038
 H                  2.33180692    2.42901609   -4.99798812

 1 2 1.5 6 1.5 7 1.0
 2 3 1.5 8 1.0
 3 4 1.5 9 1.0
 4 5 1.5 12 1.0
 5 6 1.5 10 1.0
 6 11 1.0
 7
 8
 9
 10
 11
 12 13 1.0
 13 14 1.5 15 1.5
 14 16 1.5 17 1.0
 15 18 1.5 19 1.0
 16 20 1.5 21 1.0
 17
 18 20 1.5 22 1.0
 19
 20 23 1.0
 21
 22
 23

