%chk=Rad1.chk
%nproc=16
%mem=20GB
# m062x/cbsb7 opt(maxcycle=200) freq scf(maxcycle=200) geom=connectivity

Title Card Required

0 2
 C                 -0.66663451   -2.76898696    0.00103899
 C                  0.73476543   -2.76890496    0.00062983
 C                  1.43539448   -1.55521600    0.00074455
 C                  0.73462358   -0.34160904    0.00127016
 C                 -0.66677636   -0.34169105    0.00167878
 C                 -1.36740540   -1.55538001    0.00156294
 H                 -1.20158033   -3.69566542    0.00094788
 H                  1.26981956   -3.69552080    0.00022615
 H                  2.50539443   -1.55515338    0.00043133
 H                 -1.20183049    0.58492479    0.00207885
 H                 -2.43740535   -1.55544262    0.00187205
 O                  1.44955118    0.89684908    0.00138953

 1 2 1.5 6 1.5 7 1.0
 2 3 1.5 8 1.0
 3 4 1.5 9 1.0
 4 5 1.5 12 1.0
 5 6 1.5 10 1.0
 6 11 1.0
 7
 8
 9
 10
 11
 12

