%chk=Rad2.chk
%nproc=16
%mem=20GB
# m062x/cbsb7 opt(maxcycle=200) freq scf(maxcycle=200) geom=connectivity

Title Card Required

0 2
 C                 -0.65091672   -2.74637320    0.05974681
 C                  0.75047591   -2.74187120    0.06036725
 C                  1.44727809   -1.52602221    0.05037134
 C                  0.74268763   -0.31467524    0.03975154
 C                 -0.65870500   -0.31917726    0.03912872
 C                 -1.35550717   -1.53502624    0.04912596
 H                 -1.18294064   -3.67470088    0.06737946
 H                  1.28844636   -3.66676151    0.06847340
 H                 -2.42550155   -1.53846362    0.04865236
 O                  1.45371026    0.92598699    0.02955054
 O                  2.87727057   -1.52142830    0.05100796
 O                 -1.37767485    0.91689107    0.02829193
 C                  3.35736260   -2.68171459    0.73522093
 H                  3.00373933   -3.56075901    0.23809771
 H                  4.42735697   -2.67827719    0.73569728
 H                  3.00022119   -2.67429380    1.74383133
 C                 -2.62693364    0.74761932    0.70327307
 H                 -3.16490409    1.67250961    0.69516442
 H                 -3.20257090   -0.00419933    0.20496548
 H                 -2.44808601    0.44788981    1.71474514

 1 2 1.5 6 1.5 7 1.0
 2 3 1.5 8 1.0
 3 4 1.5 11 1.0
 4 5 1.5 10 1.0
 5 6 1.5 12 1.0
 6 9 1.0
 7
 8
 9
 10
 11 13 1.0
 12 17 1.0
 13 14 1.0 15 1.0 16 1.0
 14
 15
 16
 17 18 1.0 19 1.0 20 1.0
 18
 19
 20

