%chk=3PLIGM2.chk
# hf/3-21g geom=connectivity

Title Card Required

0 1
 C                 -0.97970585    2.87121518    1.02490738
 C                  0.41930621    2.80432458    1.07027703
 C                  1.17724459    3.98303067    1.07936670
 C                  0.53613716    5.22865544    1.04304198
 C                 -0.86297385    5.29555403    0.99780991
 C                 -1.62085164    4.11676767    0.98860087
 H                 -1.55840386    1.97123116    1.01800034
 H                 -1.35252903    6.24659926    0.97028423
 O                  2.60484426    3.91476628    1.12572652
 C                  0.60792482    7.45488997    0.34159753
 H                  1.18672158    8.35480274    0.34850525
 H                  0.44750507    7.14174833   -0.66890466
 H                 -0.33551896    7.63397656    0.81354029
 C                  0.27492831    0.56626774    0.41998882
 H                  0.76423593   -0.38489509    0.44764894
 H                 -0.68055125    0.48980214    0.89551745
 H                  0.14363629    0.87036741   -0.59745756
 O                  1.07338527    1.53324109    1.10727631
 O                  1.30966614    6.43136330    1.05210838
 H                  2.89545559    3.91116229    2.04067469
 C                 -3.15826521    4.18986654    0.93850036
 C                 -3.86365205    4.10885554   -0.42801374
 H                 -3.59989587    4.96258698   -1.01664196
 O                 -5.27998549    4.08357495   -0.23282741
 C                 -5.93411222    4.00948239   -1.50223985
 C                 -6.28619224    5.18523673   -2.17865307
 C                 -6.22296429    2.76119830   -2.06990474
 C                 -6.92696051    5.11273089   -3.42286616
 C                 -6.86372207    2.68868367   -3.31412827
 C                 -7.21563953    3.86445267   -3.99064337
 H                 -7.19578655    6.01044110   -3.93934401
 H                 -7.08425277    1.73559249   -3.74759978
 H                 -7.70475153    3.80908351   -4.94069384
 C                 -6.79007586    0.52422654   -1.71285903
 H                 -6.76534932    0.34950742   -2.76820932
 H                 -6.52130587   -0.37346196   -1.19632544
 H                 -7.77664720    0.82052192   -1.42341374
 C                 -6.97039297    7.41238642   -2.02092115
 H                 -6.74988119    8.36545719   -1.58740240
 H                 -6.95313290    7.49321566   -3.08772345
 H                 -7.94056028    7.09189191   -1.70316256
 O                 -5.99158563    6.45896153   -1.59922746
 O                 -5.86380082    1.56145028   -1.37960322
 C                 -3.42330103    2.82621769   -1.15772799
 H                 -3.91334338    2.76994470   -2.10724993
 H                 -2.36350113    2.84497910   -1.30387273
 O                 -3.77587652    1.68531245   -0.37100314
 H                 -3.50137429    0.88573552   -0.82588565
 O                 -3.87689606    4.59582571    2.10622740
 H                 -3.29956613    4.54371978    2.87145043
 H                 -3.08591463    5.24239432    0.76004764

 1 2 1.5 6 1.5 7 1.0
 2 3 1.5 18 1.0
 3 4 1.5 9 1.0
 4 5 1.5 19 1.0
 5 6 1.5 8 1.0
 6 21 1.0
 7
 8
 9 20 1.0
 10 11 1.0 12 1.0 13 1.0 19 1.0
 11
 12
 13
 14 15 1.0 16 1.0 17 1.0 18 1.0
 15
 16
 17
 18
 19
 20
 21 22 1.0 49 1.0 51 1.0
 22 23 1.0 24 1.0 44 1.0
 23
 24 25 1.0
 25 26 1.5 27 1.5
 26 28 1.5 42 1.0
 27 29 1.5 43 1.0
 28 30 1.5 31 1.0
 29 30 1.5 32 1.0
 30 33 1.0
 31
 32
 33
 34 35 1.0 36 1.0 37 1.0 43 1.0
 35
 36
 37
 38 39 1.0 40 1.0 41 1.0 42 1.0
 39
 40
 41
 42
 43
 44 45 1.0 46 1.0 47 1.0
 45
 46
 47 48 1.0
 48
 49 50 1.0
 50
 51

