%chk=7RADIOM2.chk
# hf/3-21g geom=connectivity

Title Card Required

0 2
 C                 -0.97955281    2.87118948    1.02449510
 C                  0.41950357    2.80428157    1.07017389
 C                  1.17744331    3.98299377    1.07949361
 C                  0.53632679    5.22861383    1.04313124
 C                 -0.86272956    5.29552174    0.99745180
 C                 -1.62066932    4.11680955    0.98813247
 H                 -1.55825658    1.97121655    1.01737786
 H                 -1.35223627    6.24658031    0.96968887
 O                  2.60505175    3.91472043    1.12610800
 C                  0.60775077    7.45510665    0.34263498
 H                  1.18645465    8.35507955    0.34974877
 H                  0.44715528    7.14231162   -0.66794325
 H                 -0.33561838    7.63393304    0.81483807
 C                  0.27578926    0.56620034    0.41947790
 H                  0.76529603   -0.38485825    0.44723885
 H                 -0.67989528    0.48945137    0.89453227
 H                  0.14492578    0.87041830   -0.59798275
 O                  1.07370420    1.53324065    1.10727496
 O                  1.30973479    6.43138135    1.05263846
 H                  2.89553017    3.91092935    2.04109866
 C                 -3.15809380    4.19033468    0.93793251
 C                 -3.86369099    4.10883341   -0.42848256
 C                 -3.42431026    2.82537105   -1.15736455
 H                 -3.91456286    2.76874355   -2.10675684
 H                 -2.36451924    2.84333923   -1.30372075
 O                 -3.77747271    1.68525077   -0.36977199
 H                 -3.50357304    0.88517034   -0.82413998
 O                 -3.87657086    4.59719262    2.10547580
 H                 -3.29923812    4.54542562    2.87072549
 H                 -3.08535814    5.24274270    0.75891610
 H                 -4.92348201    4.09086524   -0.28212635

 1 2 1.5 6 1.5 7 1.0
 2 3 1.5 18 1.0
 3 4 1.5 9 1.0
 4 5 1.5 19 1.0
 5 6 1.5 8 1.0
 6 21 1.0
 7
 8
 9 20 1.0
 10 11 1.0 12 1.0 13 1.0 19 1.0
 11
 12
 13
 14 15 1.0 16 1.0 17 1.0 18 1.0
 15
 16
 17
 18
 19
 20
 21 22 1.0 28 1.0 30 1.0
 22 23 1.0 31 1.0
 23 24 1.0 25 1.0 26 1.0
 24
 25
 26 27 1.0
 27
 28 29 1.0
 29
 30
 31

