%chk=10LIG.chk
# hf/3-21g geom=connectivity

Title Card Required

0 1
 C                 -1.00908466    2.85920536    0.97552102
 C                  0.38636056    2.73272041    1.00113660
 C                  1.19487390    3.87532533    0.93271069
 C                  0.60794198    5.14441548    0.83867317
 C                 -0.78750329    5.27090071    0.81306149
 C                 -1.59601659    4.12829547    0.88148299
 H                 -1.62640250    1.98680094    1.02776291
 H                 -1.23563883    6.23987916    0.74126109
 O                  2.61879765    3.74625875    0.95884494
 H                  2.92647068    3.77920910    1.86760870
 C                 -3.12947288    4.26728981    0.85333294
 C                 -3.86422479    4.14322499   -0.49438646
 H                 -3.57456632    4.95048991   -1.13416870
 O                 -5.27624027    4.19287418   -0.27382525
 C                 -5.95850987    4.07767113   -1.52527900
 C                 -6.26970385    5.22832537   -2.26221528
 C                 -6.31594009    2.81411792   -2.01476742
 C                 -6.93832537    5.11542623   -3.48864139
 C                 -6.98456282    2.70121886   -3.24119289
 C                 -7.29575356    3.85187287   -3.97813089
 H                 -7.17592739    5.99397617   -4.05130937
 H                 -7.25747020    1.73646806   -3.61492736
 H                 -7.80625899    3.76567173   -4.91453549
 C                 -3.49523626    2.80383388   -1.15882525
 H                 -4.00574565    2.71763303   -2.09522771
 H                 -2.43869320    2.76668375   -1.32386054
 O                 -3.88234997    1.72496581   -0.30378920
 H                 -3.65233118    0.89002069   -0.71798482
 O                 -3.80687900    4.76845164    2.00869339
 H                 -3.21766030    4.73266041    2.76575371
 H                 -3.01451960    5.30415592    0.61543713
 H                 -6.07833876    1.93556802   -1.45209906
 H                 -5.99679908    6.19307637   -1.88847941
 H                  0.83449609    1.76374200    1.07293764
 H                  1.22525983    6.01681992    0.78643172

 1 2 1.5 6 1.5 7 1.0
 2 3 1.5 34 1.0
 3 4 1.5 9 1.0
 4 5 1.5 35 1.0
 5 6 1.5 8 1.0
 6 11 1.0
 7
 8
 9 10 1.0
 10
 11 12 1.0 29 1.0 31 1.0
 12 13 1.0 14 1.0 24 1.0
 13
 14 15 1.0
 15 16 1.5 17 1.5
 16 18 1.5 33 1.0
 17 19 1.5 32 1.0
 18 20 1.5 21 1.0
 19 20 1.5 22 1.0
 20 23 1.0
 21
 22
 23
 24 25 1.0 26 1.0 27 1.0
 25
 26
 27 28 1.0
 28
 29 30 1.0
 30
 31
 32
 33
 34
 35

