%chk=Rphenox.chk
# hf/3-21g geom=connectivity

Title Card Required

0 2
 C                 -1.00838561    2.76252684    1.00587962
 C                  0.33692611    2.76402512    0.61337979
 C                  1.01006077    3.97840595    0.42340379
 C                  0.33788346    5.19128851    0.62592671
 C                 -1.00742796    5.18979022    1.01842755
 C                 -1.68056258    3.97540939    1.20840368
 H                 -1.52233948    1.83532014    1.15092838
 H                 -1.52065089    6.11585298    1.17305610
 H                 -2.70773807    3.97426542    1.50808552
 O                  2.38282877    3.97993480    0.02289700
 H                  0.85183607    6.11849523    0.48087360
 H                  0.85014862    1.83796237    0.45874979

 1 2 1.5 6 1.5 7 1.0
 2 3 1.5 12 1.0
 3 4 1.5 10 1.0
 4 5 1.5 11 1.0
 5 6 1.5 8 1.0
 6 9 1.0
 7
 8
 9
 10
 11
 12

