%chk=13ADIO.chk
# hf/3-21g geom=connectivity

Title Card Required

0 1
 C                 -6.56621167    3.58834407    0.48120987
 C                 -5.17105167    3.58834407    0.48120987
 C                 -4.47351367    4.79609507    0.48120987
 C                 -5.17116767    6.00460407    0.48001087
 C                 -6.56599267    6.00452607    0.47953187
 C                 -7.26359367    4.79632007    0.48052787
 H                 -4.62154367    2.63583107    0.48252487
 H                 -3.37383367    4.79617507    0.48184387
 H                 -7.11611467    6.95680707    0.47857887
 H                 -8.36319767    4.79650307    0.48034787
 O                 -4.45569961    7.24275004    0.47993415
 H                 -4.29616263    7.52061470   -0.42501844
 C                 -7.33614704    2.25462778    0.48184009
 H                 -7.50868872    1.94287903    1.49077125
 C                 -8.68590034    2.44075186   -0.23588119
 H                 -9.34062405    3.02067857    0.38049686
 H                 -8.52886531    2.94755910   -1.16506708
 C                 -9.31935348    1.06279154   -0.50339279
 H                 -9.41066221    0.52720449    0.41840396
 H                -10.28863567    1.19398168   -0.93719133
 O                 -8.49013442    0.32371314   -1.40398086
 H                 -8.97931651   -0.42802795   -1.74630559
 O                 -6.56715131    1.25998415   -0.19950390
 H                 -6.26700158    0.60016991    0.42990480

 1 2 1.5 6 1.5 13 1.0
 2 3 1.5 7 1.0
 3 4 1.5 8 1.0
 4 5 1.5 11 1.0
 5 6 1.5 9 1.0
 6 10 1.0
 7
 8
 9
 10
 11 12 1.0
 12
 13 14 1.0 15 1.0 23 1.0
 14
 15 16 1.0 17 1.0 18 1.0
 16
 17
 18 19 1.0 20 1.0 21 1.0
 19
 20
 21 22 1.0
 22
 23 24 1.0
 24

