%chk=13RADIO.chk
# hf/3-21g geom=connectivity

Title Card Required

0 2
 C                 -6.48201248    3.45052646    0.54995965
 C                 -5.09376578    3.32934070    0.40161178
 C                 -4.30213723    4.47621199    0.25351577
 C                 -4.89875544    5.74426901    0.25376699
 C                 -6.28700177    5.86545494    0.40211803
 C                 -7.07863022    4.71858371    0.55021508
 H                 -4.63823470    2.36115095    0.40141852
 H                 -3.24218007    4.38368397    0.14024885
 H                 -6.74253288    6.83364468    0.40231106
 H                 -8.13858744    4.81111169    0.66348138
 O                 -4.09097163    6.91454564    0.10264471
 H                 -4.01030079    7.12951063   -0.82949383
 C                 -7.35193441    2.19022814    0.71269859
 H                 -7.44185166    1.95062701    1.75164334
 C                 -8.75040182    2.45216752    0.12339675
 H                 -9.15812979    3.44139629    0.13258095
 C                 -9.56204578    1.29035710   -0.47912347
 H                 -9.30667543    0.37969099    0.02124961
 H                -10.60717717    1.48393309   -0.35612458
 O                 -9.26024016    1.16988722   -1.87171112
 H                 -9.76620003    0.44564177   -2.24730814
 O                 -6.74097238    1.09693627    0.02252593
 H                 -5.86920048    0.93364938    0.38988292

 1 2 1.5 6 1.5 13 1.0
 2 3 1.5 7 1.0
 3 4 1.5 8 1.0
 4 5 1.5 11 1.0
 5 6 1.5 9 1.0
 6 10 1.0
 7
 8
 9
 10
 11 12 1.0
 12
 13 14 1.0 15 1.0 22 1.0
 14
 15 16 1.0 17 1.0
 16
 17 18 1.0 19 1.0 20 1.0
 18
 19
 20 21 1.0
 21
 22 23 1.0
 23

